*Heading
** Job name: Full_grv1E11 Model name: Validation
** Generated by: Abaqus/CAE 2020
*Preprint, echo=NO, model=NO, history=NO, contact=NO
**
** PARTS
**
*Part, name=pipe
*End Part
**  
**
** ASSEMBLY
**
*Assembly, name=Assembly
**  
*Instance, name=pipe-1, part=pipe
*Node
      1,           0.,           0.,           0.
      2,  0.949999988,           0.,           0.
      3,   1.95000005,           0.,           0.
      4,   2.95000005,           0.,           0.
      5,   3.95000005,           0.,           0.
      6,   4.94999981,           0.,           0.
      7,   5.94999981,           0.,           0.
      8,   6.94999981,           0.,           0.
      9,   7.94999981,           0.,           0.
     10,   8.94999981,           0.,           0.
     11,   9.94999981,           0.,           0.
     12,   10.9499998,           0.,           0.
     13,   11.9499998,           0.,           0.
     14,   12.9499998,           0.,           0.
     15,   13.9499998,           0.,           0.
     16,   14.9499998,           0.,           0.
     17,   15.9499998,           0.,           0.
     18,   16.9500008,           0.,           0.
     19,   17.9500008,           0.,           0.
     20,   18.9500008,           0.,           0.
** ... 49 like lines cut
*Element, type=B31
1, 1, 2
2, 2, 3
3, 3, 4
4, 4, 5
5, 5, 6
6, 6, 7
7, 7, 8
8, 8, 9
 9,  9, 10
10, 10, 11
11, 11, 12
12, 12, 13
13, 13, 14
14, 14, 15
15, 15, 16
16, 16, 17
17, 17, 18
18, 18, 19
19, 19, 20
20, 20, 21
** ... 48 like lines cut
*Node
     70,           0.,           0.,           0.
*Nset, nset=pipe-1-RefPt_, internal
70, 
*Nset, nset=Wire-1-Set-1, generate
  1,  69,   1
*Elset, elset=Wire-1-Set-1, generate
  1,  68,   1
*Nset, nset=_PickedSet13, internal, generate
  1,  69,   1
*Elset, elset=_PickedSet13, internal, generate
  1,  68,   1
** Section: beam  Profile: Profile-3
*Beam Section, elset=_PickedSet13, material="Carbon Steel", poisson = 0.3, temperature=GRADIENTS, section=CIRC
0.226
0.,0.,-1.
*End Instance
**  
*Node
      1,   2392.53711,  -66.5233994,           0.
*Nset, nset=_PICKEDSET37, internal
 1,
*Nset, nset=_PickedSet40, internal, instance=pipe-1
 36,
*Nset, nset=_PickedSet41, internal, instance=pipe-1
 35,
*Nset, nset=_PickedSet46, internal, instance=pipe-1, generate
  1,  69,   1
*Elset, elset=_PickedSet46, internal, instance=pipe-1, generate
  1,  68,   1
*Spring, elset=Springs/Dashpots-1-spring
2
1e+11
*Element, type=Spring1, elset=Springs/Dashpots-1-spring
1, pipe-1.1
2, pipe-1.2
3, pipe-1.3
4, pipe-1.4
5, pipe-1.5
6, pipe-1.6
7, pipe-1.7
8, pipe-1.8
9, pipe-1.9
10, pipe-1.10
11, pipe-1.11
12, pipe-1.12
13, pipe-1.13
14, pipe-1.14
15, pipe-1.15
16, pipe-1.16
17, pipe-1.17
18, pipe-1.18
19, pipe-1.19
20, pipe-1.20
** ... 15 like lines cut
*End Assembly
** 
** MATERIALS
** 
*Material, name="Carbon Steel"
*Density
7800.,
*Elastic
 2e+11, 0.3
** 
** INTERACTION PROPERTIES
** 
*Surface Interaction, name=SOILSEABED
1.,
*Friction, slip tolerance=0.005
 0.15,
*Surface Behavior, pressure-overclosure=LINEAR
22500., 
*Surface Interaction, name=SOILSEABED-Copy
1.,
*Friction, slip tolerance=0.005
 0.15,
*Surface Behavior, pressure-overclosure=LINEAR
190000., 
** 
** BOUNDARY CONDITIONS
** 
** Name: BC-1- Type: Displacement/Rotation
*Boundary
_PickedSet40, 1, 1
_PickedSet40, 2, 2
_PickedSet40, 3, 3
_PickedSet40, 4, 4
_PickedSet40, 5, 5
_PickedSet40, 6, 6
** Name: BC-2 Type: Displacement/Rotation
*Boundary
_PickedSet41, 1, 1
_PickedSet41, 3, 3
_PickedSet41, 4, 4
_PickedSet41, 5, 5
_PickedSet41, 6, 6
** ----------------------------------------------------------------
** 
** STEP: Gravity
** 
*Step, name=Gravity, nlgeom=YES, inc=1000
*Static, stabilize=0.0002, allsdtol=0.05, continue=NO
0.001, 1., 1e-05, 1.
** 
** BOUNDARY CONDITIONS
** 
** Name: BC-1- Type: Displacement/Rotation
*Boundary
_PickedSet40, 2, 2, 0.60116
** 
** LOADS
** 
** Name: grav   Type: Gravity
*Dload
, GRAV, 9.81, 0., -1., 0.
** 
** OUTPUT REQUESTS
** 
*Restart, write, frequency=0
** 
** FIELD OUTPUT: F-Output-1
** 
*Output, field, variable=PRESELECT
** 
** HISTORY OUTPUT: H-Output-1
** 
*Output, history, variable=PRESELECT
*End Step
** ----------------------------------------------------------------
** 
** STEP: Step-3
** 
*Step, name=Step-3, nlgeom=NO, perturbation
*Frequency, eigensolver=Lanczos, sim, acoustic coupling=on, normalization=mass
16, , , , , 
** 
** OUTPUT REQUESTS
** 
*Restart, write, frequency=0
** 
** FIELD OUTPUT: F-Output-3
** 
*Output, field, variable=PRESELECT
*End Step
